/*--------------------------------*- C++ -*----------------------------------*\
|                                                                             |
|    HiSA: High Speed Aerodynamic solver                                      |
|    Copyright (C) 2014-2017 Johan Heyns - CSIR, South Africa                 |
|    Copyright (C) 2014-2017 Oliver Oxtoby - CSIR, South Africa               |
|                                                                             |
\*---------------------------------------------------------------------------*/
FoamFile
{
    version     2.0;
    format      ascii;
    class       dictionary;
    location    "system";
    object      sampleDict;
}
// * * * * * * * * * * * * * * * * * * * * * * * * * * * * * * * * * * * * * //

interpolationScheme cellPoint;
libs ("libsampling.so");
type    sets;

setFormat       raw;

sets
(
    line
    {
        type    face;
        axis    y;
        start   ( 0.545592 0 0 );
        end     ( 0.545592 0.1 0 );
        nPoints 500;
    }
);

fields          ( p U );


// ************************************************************************* //
