/*--------------------------------*- C++ -*----------------------------------*\
|                                                                             |
|    HiSA: High Speed Aerodynamic solver                                      |
|    Copyright (C) 2014-2017 Johan Heyns - CSIR, South Africa                 |
|    Copyright (C) 2014-2017 Oliver Oxtoby - CSIR, South Africa               |
|                                                                             |
\*---------------------------------------------------------------------------*/
FoamFile
{
    version     2.0;
    format      ascii;
    class       dictionary;
    object      changeDictionaryDict;
}
// * * * * * * * * * * * * * * * * * * * * * * * * * * * * * * * * * * * * * //

dictionaryReplacement
{

    boundary
    {
        airfoil
        {
            type            wall;
            physicalType    wall;
        }
        back
        {
            type            empty;
        }
        front
        {
            type            empty;
        }
    }
}

// ************************************************************************* //
